Version 4
SHEET 1 880 680
WIRE 144 -80 -96 -80
WIRE 160 -80 160 -240
WIRE 160 -80 144 -80
WIRE 528 -80 160 -80
WIRE 560 -48 480 -48
WIRE 656 -48 640 -48
WIRE -32 -16 -144 -16
WIRE 208 -16 96 -16
WIRE 528 0 528 -80
WIRE 144 16 144 -80
WIRE 480 16 480 -48
WIRE 496 16 480 16
WIRE -96 32 -96 -80
WIRE 96 32 96 -16
WIRE 112 32 96 32
WIRE 656 32 656 -48
WIRE 656 32 560 32
WIRE -144 48 -144 -16
WIRE -128 48 -144 48
WIRE 208 48 208 -16
WIRE 208 48 176 48
WIRE 224 48 208 48
WIRE 336 48 304 48
WIRE 496 48 336 48
WIRE -32 64 -32 -16
WIRE -32 64 -64 64
WIRE -16 64 -32 64
WIRE 64 64 48 64
WIRE 112 64 64 64
WIRE -128 80 -208 80
WIRE 336 80 336 48
WIRE 144 96 144 80
WIRE 144 96 -96 96
WIRE 240 96 144 96
WIRE 528 96 528 64
WIRE 528 96 240 96
WIRE 64 112 64 64
WIRE 240 304 240 96
FLAG 336 144 0
FLAG 64 192 0
FLAG -208 160 0
FLAG 240 304 0
FLAG 80 -240 0
FLAG 480 -128 0
SYMBOL res 48 96 R0
SYMATTR InstName R1
SYMATTR Value 680k
SYMBOL res 320 32 R90
WINDOW 0 0 56 VBottom 2
WINDOW 3 32 56 VTop 2
SYMATTR InstName R2
SYMATTR Value 84k
SYMBOL res 656 -64 R90
WINDOW 0 0 56 VBottom 2
WINDOW 3 32 56 VTop 2
SYMATTR InstName R3
SYMATTR Value 10k
SYMBOL cap 48 48 R90
WINDOW 0 0 32 VBottom 2
WINDOW 3 32 32 VTop 2
SYMATTR InstName C1
SYMATTR Value .47µ
SYMBOL cap 320 80 R0
SYMATTR InstName C2
SYMATTR Value .47µ
SYMBOL Opamps\\UniversalOpamp2 -96 64 R0
SYMATTR InstName U1
SYMBOL voltage -208 64 R0
WINDOW 123 24 124 Left 2
WINDOW 39 0 0 Left 0
SYMATTR InstName V1
SYMATTR Value SINE(500m 50m)
SYMATTR Value2 AC 50m 0
SYMBOL Opamps\\UniversalOpamp2 144 48 R0
SYMATTR InstName U2
SYMBOL Opamps\\UniversalOpamp2 528 32 R0
SYMATTR InstName U3
SYMBOL voltage 176 -240 R90
WINDOW 0 -32 56 VBottom 2
WINDOW 3 32 56 VTop 2
WINDOW 123 0 0 Left 0
WINDOW 39 0 0 Left 0
SYMATTR InstName V2
SYMATTR Value 5
SYMBOL res 464 -144 R0
SYMATTR InstName R4
SYMATTR Value 56k
TEXT -242 328 Left 2 !.ac dec 1000 .1 100
